/*--------------------------------*- C++ -*----------------------------------*\
| =========                 |                                                 |
| \\      /  F ield         | OpenFOAM: The Open Source CFD Toolbox           |
|  \\    /   O peration     | Version:  v1812                                 |
|   \\  /    A nd           | Web:      www.OpenFOAM.com                      |
|    \\/     M anipulation  |                                                 |
\*---------------------------------------------------------------------------*/
FoamFile
{
    version     2.0;
    format      ascii;
    class       volScalarField;
    object      omega;
}
// * * * * * * * * * * * * * * * * * * * * * * * * * * * * * * * * * * * * * //

#include        "include/initialConditions"

dimensions      [0 0 -1 0 0 0 0];

internalField   uniform $turbulentOmega;

boundaryField
{
    #include "include/fixedInlet"

    OUTLET
    {
        type            inletOutlet;
        inletValue      $internalField;
        value           $internalField;
    }

    WALL
    {
        type            omegaWallFunction;
        blended         true;
        value           $internalField;
    }

    CUBE1
    {
        type            omegaWallFunction;
        blended         true;
        value           $internalField;
    }

    CUBE2
    {
        type            omegaWallFunction;
        blended         true;
        value           $internalField;
    } 

    #include "include/topLeftRightPatches"
}


// ************************************************************************* //
