FoamFile
{
    version     2.0;
    format      ascii;
    class       dictionary;
    location    "system";
    object      controlDict;
}
// * * * * * * * * * * * * * * * * * * * * * * * * * * * * * * * * * * * * * //

libs
(
//    "libMyCorrection.so"
);

application     simpleFoam;

startFrom       latestTime;

startTime       0;

stopAt          endTime;

endTime         2000;

adjustTimeStep  no;

deltaT          1;

writeControl     timeStep;

writeInterval   500;

purgeWrite      1;

writeFormat     ascii;

writePrecision  6;

writeCompression off;

timeFormat      general;

timePrecision   6;

runTimeModifiable true;


functions
{
    #include "turbulenceFields"
    #include "averaging"
    #include "surfaces"
    #include "lines"
    #include "skinFriction"
    #include "yPlus"
    #include "forceCoeffs"

//    #include "fileUpdate"
}

