// -*- C++ -*-
// File generated by PyFoam - sorry for the ugliness

FoamFile
{
 version 2;
 format ascii;
 class dictionary;
 object "skinFriction";
}

skinFriction
{
  executeControl onEnd;
  libs
    (
      "libfieldFunctionObjects.so"
    );
  log yes;
  magUInf 1.0;
  type skinFriction;
  writeControl onEnd;
}

readSkinFriction
{
  executeControl onEnd;
  fields
    (
      skinFriction
    );
  libs
    (
      "libfieldFunctionObjects.so"
    );
  type readFields;
  writeControl onEnd;
}

skinFrictionComponents
{
  executeControl onEnd;
  field skinFriction;
  libs
    (
      "libfieldFunctionObjects.so"
    );
  type components;
  writeControl onEnd;
}

