// -*- C++ -*-
// File generated by PyFoam - sorry for the ugliness

FoamFile
{
 version 2;
 format ascii;
 class dictionary;
 object "yPlus";
}

yPlus
{
  libs
    (
      "libfieldFunctionObjects.so"
    );
  type yPlus;
  executeControl onEnd;
  writeControl onEnd;
}

